2496
50 50 2
Mn 0 0 0
O 1 0 0
Mn 2 0 0
O 3 0 0
Mn 4 0 0
O 5 0 0
Mn 6 0 0
O 7 0 0
Mn 8 0 0
O 9 0 0
Mn 10 0 0
O 11 0 0
Mn 12 0 0
O 13 0 0
Mn 14 0 0
O 15 0 0
Mn 16 0 0
O 17 0 0
Mn 18 0 0
O 19 0 0
Mn 20 0 0
O 21 0 0
Mn 22 0 0
O 23 0 0
Mn 24 0 0
O 25 0 0
Mn 26 0 0
O 27 0 0
Mn 28 0 0
O 29 0 0
Mn 30 0 0
O 31 0 0
Mn 32 0 0
O 33 0 0
Mn 34 0 0
O 35 0 0
Mn 36 0 0
O 37 0 0
Mn 38 0 0
O 39 0 0
Mn 40 0 0
O 41 0 0
Mn 42 0 0
O 43 0 0
Mn 44 0 0
O 45 0 0
Mn 46 0 0
O 47 0 0
Mn 48 0 0
O 49 0 0
O 0 1 0
O 2 1 0
O 4 1 0
O 6 1 0
O 8 1 0
O 10 1 0
O 12 1 0
O 14 1 0
O 16 1 0
O 18 1 0
O 20 1 0
O 22 1 0
O 24 1 0
O 26 1 0
O 28 1 0
O 30 1 0
O 32 1 0
O 34 1 0
O 36 1 0
O 38 1 0
O 40 1 0
O 42 1 0
O 44 1 0
O 46 1 0
O 48 1 0
Mn 0 2 0
O 1 2 0
Mn 2 2 0
O 3 2 0
Mn 4 2 0
O 5 2 0
Mn 6 2 0
O 7 2 0
Mn 8 2 0
O 9 2 0
Mn 10 2 0
O 11 2 0
Mn 12 2 0
O 13 2 0
Mn 14 2 0
O 15 2 0
Mn 16 2 0
O 17 2 0
Mn 18 2 0
O 19 2 0
Mn 20 2 0
O 21 2 0
Mn 22 2 0
O 23 2 0
Mn 24 2 0
O 25 2 0
Mn 26 2 0
O 27 2 0
Mn 28 2 0
O 29 2 0
Mn 30 2 0
O 31 2 0
Mn 32 2 0
O 33 2 0
Mn 34 2 0
O 35 2 0
Mn 36 2 0
O 37 2 0
Mn 38 2 0
O 39 2 0
Mn 40 2 0
O 41 2 0
Mn 42 2 0
O 43 2 0
Mn 44 2 0
O 45 2 0
Mn 46 2 0
O 47 2 0
Mn 48 2 0
O 49 2 0
O 0 3 0
O 2 3 0
O 4 3 0
O 6 3 0
O 8 3 0
O 10 3 0
O 12 3 0
O 14 3 0
O 16 3 0
O 18 3 0
O 20 3 0
O 22 3 0
O 24 3 0
O 26 3 0
O 28 3 0
O 30 3 0
O 32 3 0
O 34 3 0
O 36 3 0
O 38 3 0
O 40 3 0
O 42 3 0
O 44 3 0
O 46 3 0
O 48 3 0
Mn 0 4 0
O 1 4 0
Mn 2 4 0
O 3 4 0
Mn 4 4 0
O 5 4 0
Mn 6 4 0
O 7 4 0
Mn 8 4 0
O 9 4 0
Mn 10 4 0
O 11 4 0
Mn 12 4 0
O 13 4 0
Mn 14 4 0
O 15 4 0
Mn 16 4 0
O 17 4 0
Mn 18 4 0
O 19 4 0
Mn 20 4 0
O 21 4 0
Mn 22 4 0
O 23 4 0
Mn 24 4 0
O 25 4 0
Mn 26 4 0
O 27 4 0
Mn 28 4 0
O 29 4 0
Mn 30 4 0
O 31 4 0
Mn 32 4 0
O 33 4 0
Mn 34 4 0
O 35 4 0
Mn 36 4 0
O 37 4 0
Mn 38 4 0
O 39 4 0
Mn 40 4 0
O 41 4 0
Mn 42 4 0
O 43 4 0
Mn 44 4 0
O 45 4 0
Mn 46 4 0
O 47 4 0
Mn 48 4 0
O 49 4 0
O 0 5 0
O 2 5 0
O 4 5 0
O 6 5 0
O 8 5 0
O 10 5 0
O 12 5 0
O 14 5 0
O 16 5 0
O 18 5 0
O 20 5 0
O 22 5 0
O 24 5 0
O 26 5 0
O 28 5 0
O 30 5 0
O 32 5 0
O 34 5 0
O 36 5 0
O 38 5 0
O 40 5 0
O 42 5 0
O 44 5 0
O 46 5 0
O 48 5 0
Mn 0 6 0
O 1 6 0
Mn 2 6 0
O 3 6 0
Mn 4 6 0
O 5 6 0
Mn 6 6 0
O 7 6 0
Mn 8 6 0
O 9 6 0
Mn 10 6 0
O 11 6 0
Mn 12 6 0
O 13 6 0
Mn 14 6 0
O 15 6 0
Mn 16 6 0
O 17 6 0
Mn 18 6 0
O 19 6 0
Mn 20 6 0
O 21 6 0
Mn 22 6 0
O 23 6 0
Mn 24 6 0
O 25 6 0
Mn 26 6 0
O 27 6 0
Mn 28 6 0
O 29 6 0
Mn 30 6 0
O 31 6 0
Mn 32 6 0
O 33 6 0
Mn 34 6 0
O 35 6 0
Mn 36 6 0
O 37 6 0
Mn 38 6 0
O 39 6 0
Mn 40 6 0
O 41 6 0
Mn 42 6 0
O 43 6 0
Mn 44 6 0
O 45 6 0
Mn 46 6 0
O 47 6 0
Mn 48 6 0
O 49 6 0
O 0 7 0
O 2 7 0
O 4 7 0
O 6 7 0
O 8 7 0
O 10 7 0
O 12 7 0
O 14 7 0
O 16 7 0
O 18 7 0
O 20 7 0
O 22 7 0
O 24 7 0
O 26 7 0
O 28 7 0
O 30 7 0
O 32 7 0
O 34 7 0
O 36 7 0
O 38 7 0
O 40 7 0
O 42 7 0
O 44 7 0
O 46 7 0
O 48 7 0
Mn 0 8 0
O 1 8 0
Mn 2 8 0
O 3 8 0
Mn 4 8 0
O 5 8 0
Mn 6 8 0
O 7 8 0
Mn 8 8 0
O 9 8 0
Mn 10 8 0
O 11 8 0
Mn 12 8 0
O 13 8 0
Mn 14 8 0
O 15 8 0
Mn 16 8 0
O 17 8 0
Mn 18 8 0
O 19 8 0
Mn 20 8 0
O 21 8 0
Mn 22 8 0
O 23 8 0
Mn 24 8 0
O 25 8 0
Mn 26 8 0
O 27 8 0
Mn 28 8 0
O 29 8 0
Mn 30 8 0
O 31 8 0
Mn 32 8 0
O 33 8 0
Mn 34 8 0
O 35 8 0
Mn 36 8 0
O 37 8 0
Mn 38 8 0
O 39 8 0
Mn 40 8 0
O 41 8 0
Mn 42 8 0
O 43 8 0
Mn 44 8 0
O 45 8 0
Mn 46 8 0
O 47 8 0
Mn 48 8 0
O 49 8 0
O 0 9 0
O 2 9 0
O 4 9 0
O 6 9 0
O 8 9 0
O 10 9 0
O 12 9 0
O 14 9 0
O 16 9 0
O 18 9 0
O 20 9 0
O 22 9 0
O 24 9 0
O 26 9 0
O 28 9 0
O 30 9 0
O 32 9 0
O 34 9 0
O 36 9 0
O 38 9 0
O 40 9 0
O 42 9 0
O 44 9 0
O 46 9 0
O 48 9 0
Mn 0 10 0
O 1 10 0
Mn 2 10 0
O 3 10 0
Mn 4 10 0
O 5 10 0
Mn 6 10 0
O 7 10 0
Mn 8 10 0
O 9 10 0
Mn 10 10 0
O 11 10 0
Mn 12 10 0
O 13 10 0
Mn 14 10 0
O 15 10 0
Mn 16 10 0
O 17 10 0
Mn 18 10 0
O 19 10 0
Mn 20 10 0
O 21 10 0
Mn 22 10 0
O 23 10 0
Mn 24 10 0
O 25 10 0
Mn 26 10 0
O 27 10 0
Mn 28 10 0
O 29 10 0
Mn 30 10 0
O 31 10 0
Mn 32 10 0
O 33 10 0
Mn 34 10 0
O 35 10 0
Mn 36 10 0
O 37 10 0
Mn 38 10 0
O 39 10 0
Mn 40 10 0
O 41 10 0
Mn 42 10 0
O 43 10 0
Mn 44 10 0
O 45 10 0
Mn 46 10 0
O 47 10 0
Mn 48 10 0
O 49 10 0
O 0 11 0
O 2 11 0
O 4 11 0
O 6 11 0
O 8 11 0
O 10 11 0
O 12 11 0
O 14 11 0
O 16 11 0
O 18 11 0
O 20 11 0
O 22 11 0
O 24 11 0
O 26 11 0
O 28 11 0
O 30 11 0
O 32 11 0
O 34 11 0
O 36 11 0
O 38 11 0
O 40 11 0
O 42 11 0
O 44 11 0
O 46 11 0
O 48 11 0
Mn 0 12 0
O 1 12 0
Mn 2 12 0
O 3 12 0
Mn 4 12 0
O 5 12 0
Mn 6 12 0
O 7 12 0
Mn 8 12 0
O 9 12 0
Mn 10 12 0
O 11 12 0
Mn 12 12 0
O 13 12 0
Mn 14 12 0
O 15 12 0
Mn 16 12 0
O 17 12 0
Mn 18 12 0
O 19 12 0
Mn 20 12 0
O 21 12 0
Mn 22 12 0
O 23 12 0
Mn 24 12 0
O 25 12 0
Mn 26 12 0
O 27 12 0
Mn 28 12 0
O 29 12 0
Mn 30 12 0
O 31 12 0
Mn 32 12 0
O 33 12 0
Mn 34 12 0
O 35 12 0
Mn 36 12 0
O 37 12 0
Mn 38 12 0
O 39 12 0
Mn 40 12 0
O 41 12 0
Mn 42 12 0
O 43 12 0
Mn 44 12 0
O 45 12 0
Mn 46 12 0
O 47 12 0
Mn 48 12 0
O 49 12 0
O 0 13 0
O 2 13 0
O 4 13 0
O 6 13 0
O 8 13 0
O 10 13 0
O 12 13 0
O 14 13 0
O 16 13 0
O 18 13 0
O 20 13 0
O 22 13 0
O 24 13 0
O 26 13 0
O 28 13 0
O 30 13 0
O 32 13 0
O 34 13 0
O 36 13 0
O 38 13 0
O 40 13 0
O 42 13 0
O 44 13 0
O 46 13 0
O 48 13 0
Mn 0 14 0
O 1 14 0
Mn 2 14 0
O 3 14 0
Mn 4 14 0
O 5 14 0
Mn 6 14 0
O 7 14 0
Mn 8 14 0
O 9 14 0
Mn 10 14 0
O 11 14 0
Mn 12 14 0
O 13 14 0
Mn 14 14 0
O 15 14 0
Mn 16 14 0
O 17 14 0
Mn 18 14 0
O 19 14 0
Mn 20 14 0
O 21 14 0
Mn 22 14 0
O 23 14 0
Mn 24 14 0
O 25 14 0
Mn 26 14 0
O 27 14 0
Mn 28 14 0
O 29 14 0
Mn 30 14 0
O 31 14 0
Mn 32 14 0
O 33 14 0
Mn 34 14 0
O 35 14 0
Mn 36 14 0
O 37 14 0
Mn 38 14 0
O 39 14 0
Mn 40 14 0
O 41 14 0
Mn 42 14 0
O 43 14 0
Mn 44 14 0
O 45 14 0
Mn 46 14 0
O 47 14 0
Mn 48 14 0
O 49 14 0
O 0 15 0
O 2 15 0
O 4 15 0
O 6 15 0
O 8 15 0
O 10 15 0
O 12 15 0
O 14 15 0
O 16 15 0
O 18 15 0
O 20 15 0
O 22 15 0
O 24 15 0
O 26 15 0
O 28 15 0
O 30 15 0
O 32 15 0
O 34 15 0
O 36 15 0
O 38 15 0
O 40 15 0
O 42 15 0
O 44 15 0
O 46 15 0
O 48 15 0
Mn 0 16 0
O 1 16 0
Mn 2 16 0
O 3 16 0
Mn 4 16 0
O 5 16 0
Mn 6 16 0
O 7 16 0
Mn 8 16 0
O 9 16 0
Mn 10 16 0
O 11 16 0
Mn 12 16 0
O 13 16 0
Mn 14 16 0
O 15 16 0
Mn 16 16 0
O 17 16 0
Mn 18 16 0
O 19 16 0
Mn 20 16 0
O 21 16 0
Mn 22 16 0
O 23 16 0
Mn 24 16 0
O 25 16 0
Mn 26 16 0
O 27 16 0
Mn 28 16 0
O 29 16 0
Mn 30 16 0
O 31 16 0
Mn 32 16 0
O 33 16 0
Mn 34 16 0
O 35 16 0
Mn 36 16 0
O 37 16 0
Mn 38 16 0
O 39 16 0
Mn 40 16 0
O 41 16 0
Mn 42 16 0
O 43 16 0
Mn 44 16 0
O 45 16 0
Mn 46 16 0
O 47 16 0
Mn 48 16 0
O 49 16 0
O 0 17 0
O 2 17 0
O 4 17 0
O 6 17 0
O 8 17 0
O 10 17 0
O 12 17 0
O 14 17 0
O 16 17 0
O 18 17 0
O 20 17 0
O 22 17 0
O 24 17 0
O 26 17 0
O 28 17 0
O 30 17 0
O 32 17 0
O 34 17 0
O 36 17 0
O 38 17 0
O 40 17 0
O 42 17 0
O 44 17 0
O 46 17 0
O 48 17 0
Mn 0 18 0
O 1 18 0
Mn 2 18 0
O 3 18 0
Mn 4 18 0
O 5 18 0
Mn 6 18 0
O 7 18 0
Mn 8 18 0
O 9 18 0
Mn 10 18 0
O 11 18 0
Mn 12 18 0
O 13 18 0
Mn 14 18 0
O 15 18 0
Mn 16 18 0
O 17 18 0
Mn 18 18 0
O 19 18 0
Mn 20 18 0
O 21 18 0
Mn 22 18 0
O 23 18 0
Mn 24 18 0
O 25 18 0
Mn 26 18 0
O 27 18 0
Mn 28 18 0
O 29 18 0
Mn 30 18 0
O 31 18 0
Mn 32 18 0
O 33 18 0
Mn 34 18 0
O 35 18 0
Mn 36 18 0
O 37 18 0
Mn 38 18 0
O 39 18 0
Mn 40 18 0
O 41 18 0
Mn 42 18 0
O 43 18 0
Mn 44 18 0
O 45 18 0
Mn 46 18 0
O 47 18 0
Mn 48 18 0
O 49 18 0
O 0 19 0
O 2 19 0
O 4 19 0
O 6 19 0
O 8 19 0
O 10 19 0
O 12 19 0
O 14 19 0
O 16 19 0
O 18 19 0
O 20 19 0
O 22 19 0
O 24 19 0
O 26 19 0
O 28 19 0
O 30 19 0
O 32 19 0
O 34 19 0
O 36 19 0
O 38 19 0
O 40 19 0
O 42 19 0
O 44 19 0
O 46 19 0
O 48 19 0
Mn 0 20 0
O 1 20 0
Mn 2 20 0
O 3 20 0
Mn 4 20 0
O 5 20 0
Mn 6 20 0
O 7 20 0
Mn 8 20 0
O 9 20 0
Mn 10 20 0
O 11 20 0
Mn 12 20 0
O 13 20 0
Mn 14 20 0
O 15 20 0
Mn 16 20 0
O 17 20 0
Mn 18 20 0
O 19 20 0
Mn 20 20 0
O 21 20 0
Mn 22 20 0
O 23 20 0
Mn 24 20 0
O 25 20 0
Mn 26 20 0
O 27 20 0
Mn 28 20 0
O 29 20 0
Mn 30 20 0
O 31 20 0
Mn 32 20 0
O 33 20 0
Mn 34 20 0
O 35 20 0
Mn 36 20 0
O 37 20 0
Mn 38 20 0
O 39 20 0
Mn 40 20 0
O 41 20 0
Mn 42 20 0
O 43 20 0
Mn 44 20 0
O 45 20 0
Mn 46 20 0
O 47 20 0
Mn 48 20 0
O 49 20 0
O 0 21 0
O 2 21 0
O 4 21 0
O 6 21 0
O 8 21 0
O 10 21 0
O 12 21 0
O 14 21 0
O 16 21 0
O 18 21 0
O 20 21 0
O 22 21 0
O 24 21 0
O 26 21 0
O 28 21 0
O 30 21 0
O 32 21 0
O 34 21 0
O 36 21 0
O 38 21 0
O 40 21 0
O 42 21 0
O 44 21 0
O 46 21 0
O 48 21 0
Mn 0 22 0
O 1 22 0
Mn 2 22 0
O 3 22 0
Mn 4 22 0
O 5 22 0
Mn 6 22 0
O 7 22 0
Mn 8 22 0
O 9 22 0
Mn 10 22 0
O 11 22 0
Mn 12 22 0
O 13 22 0
Mn 14 22 0
O 15 22 0
Mn 16 22 0
O 17 22 0
Mn 18 22 0
O 19 22 0
Mn 20 22 0
O 21 22 0
Mn 22 22 0
O 23 22 0
Mn 24 22 0
O 25 22 0
Mn 26 22 0
O 27 22 0
Mn 28 22 0
O 29 22 0
Mn 30 22 0
O 31 22 0
Mn 32 22 0
O 33 22 0
Mn 34 22 0
O 35 22 0
Mn 36 22 0
O 37 22 0
Mn 38 22 0
O 39 22 0
Mn 40 22 0
O 41 22 0
Mn 42 22 0
O 43 22 0
Mn 44 22 0
O 45 22 0
Mn 46 22 0
O 47 22 0
Mn 48 22 0
O 49 22 0
O 0 23 0
O 2 23 0
O 4 23 0
O 6 23 0
O 8 23 0
O 10 23 0
O 12 23 0
O 14 23 0
O 16 23 0
O 18 23 0
O 20 23 0
O 22 23 0
O 24 23 0
O 26 23 0
O 28 23 0
O 30 23 0
O 32 23 0
O 34 23 0
O 36 23 0
O 38 23 0
O 40 23 0
O 42 23 0
O 44 23 0
O 46 23 0
O 48 23 0
Mn 0 24 0
O 1 24 0
Mn 2 24 0
O 3 24 0
Mn 4 24 0
O 5 24 0
Mn 6 24 0
O 7 24 0
Mn 8 24 0
O 9 24 0
Mn 10 24 0
O 11 24 0
Mn 12 24 0
O 13 24 0
Mn 14 24 0
O 15 24 0
Mn 16 24 0
O 17 24 0
Mn 18 24 0
O 19 24 0
Mn 20 24 0
O 21 24 0
Mn 22 24 0
O 23 24 0
Mn 24 24 0
O 25 24 0
Mn 26 24 0
O 27 24 0
Mn 28 24 0
O 29 24 0
Mn 30 24 0
O 31 24 0
Mn 32 24 0
O 33 24 0
Mn 34 24 0
O 35 24 0
Mn 36 24 0
O 37 24 0
Mn 38 24 0
O 39 24 0
Mn 40 24 0
O 41 24 0
Mn 42 24 0
O 43 24 0
Mn 44 24 0
O 45 24 0
Mn 46 24 0
O 47 24 0
Mn 48 24 0
O 49 24 0
O 0 25 0
O 2 25 0
O 4 25 0
O 6 25 0
O 8 25 0
O 10 25 0
O 12 25 0
O 14 25 0
O 16 25 0
O 18 25 0
O 20 25 0
O 22 25 0
O 24 25 0
O 26 25 0
O 28 25 0
O 30 25 0
O 32 25 0
O 34 25 0
O 36 25 0
O 38 25 0
O 40 25 0
O 42 25 0
O 44 25 0
O 46 25 0
O 48 25 0
Mn 0 26 0
O 1 26 0
Mn 2 26 0
O 3 26 0
Mn 4 26 0
O 5 26 0
Mn 6 26 0
O 7 26 0
Mn 8 26 0
O 9 26 0
Mn 10 26 0
O 11 26 0
Mn 12 26 0
O 13 26 0
Mn 14 26 0
O 15 26 0
Mn 16 26 0
O 17 26 0
Mn 18 26 0
O 19 26 0
Mn 20 26 0
O 21 26 0
Mn 22 26 0
O 23 26 0
Mn 24 26 0
O 25 26 0
Mn 26 26 0
O 27 26 0
Mn 28 26 0
O 29 26 0
Mn 30 26 0
O 31 26 0
Mn 32 26 0
O 33 26 0
Mn 34 26 0
O 35 26 0
Mn 36 26 0
O 37 26 0
Mn 38 26 0
O 39 26 0
Mn 40 26 0
O 41 26 0
Mn 42 26 0
O 43 26 0
Mn 44 26 0
O 45 26 0
Mn 46 26 0
O 47 26 0
Mn 48 26 0
O 49 26 0
O 0 27 0
O 2 27 0
O 4 27 0
O 6 27 0
O 8 27 0
O 10 27 0
O 12 27 0
O 14 27 0
O 16 27 0
O 18 27 0
O 20 27 0
O 22 27 0
O 24 27 0
O 26 27 0
O 28 27 0
O 30 27 0
O 32 27 0
O 34 27 0
O 36 27 0
O 38 27 0
O 40 27 0
O 42 27 0
O 44 27 0
O 46 27 0
O 48 27 0
Mn 0 28 0
O 1 28 0
Mn 2 28 0
O 3 28 0
Mn 4 28 0
O 5 28 0
Mn 6 28 0
O 7 28 0
Mn 8 28 0
O 9 28 0
Mn 10 28 0
O 11 28 0
Mn 12 28 0
O 13 28 0
Mn 14 28 0
O 15 28 0
Mn 16 28 0
O 17 28 0
Mn 18 28 0
O 19 28 0
Mn 20 28 0
O 21 28 0
Mn 22 28 0
O 23 28 0
Mn 24 28 0
O 25 28 0
Mn 26 28 0
O 27 28 0
Mn 28 28 0
O 29 28 0
Mn 30 28 0
O 31 28 0
Mn 32 28 0
O 33 28 0
Mn 34 28 0
O 35 28 0
Mn 36 28 0
O 37 28 0
Mn 38 28 0
O 39 28 0
Mn 40 28 0
O 41 28 0
Mn 42 28 0
O 43 28 0
Mn 44 28 0
O 45 28 0
Mn 46 28 0
O 47 28 0
Mn 48 28 0
O 49 28 0
O 0 29 0
O 2 29 0
O 4 29 0
O 6 29 0
O 8 29 0
O 10 29 0
O 12 29 0
O 14 29 0
O 16 29 0
O 18 29 0
O 20 29 0
O 22 29 0
O 24 29 0
O 26 29 0
O 28 29 0
O 30 29 0
O 32 29 0
O 34 29 0
O 36 29 0
O 38 29 0
O 40 29 0
O 42 29 0
O 44 29 0
O 46 29 0
O 48 29 0
Mn 0 30 0
O 1 30 0
Mn 2 30 0
O 3 30 0
Mn 4 30 0
O 5 30 0
Mn 6 30 0
O 7 30 0
Mn 8 30 0
O 9 30 0
Mn 10 30 0
O 11 30 0
Mn 12 30 0
O 13 30 0
Mn 14 30 0
O 15 30 0
Mn 16 30 0
O 17 30 0
Mn 18 30 0
O 19 30 0
Mn 20 30 0
O 21 30 0
Mn 22 30 0
O 23 30 0
Mn 24 30 0
O 25 30 0
Mn 26 30 0
O 27 30 0
Mn 28 30 0
O 29 30 0
Mn 30 30 0
O 31 30 0
Mn 32 30 0
O 33 30 0
Mn 34 30 0
O 35 30 0
Mn 36 30 0
O 37 30 0
Mn 38 30 0
O 39 30 0
Mn 40 30 0
O 41 30 0
Mn 42 30 0
O 43 30 0
Mn 44 30 0
O 45 30 0
Mn 46 30 0
O 47 30 0
Mn 48 30 0
O 49 30 0
O 0 31 0
O 2 31 0
O 4 31 0
O 6 31 0
O 8 31 0
O 10 31 0
O 12 31 0
O 14 31 0
O 16 31 0
O 18 31 0
O 20 31 0
O 22 31 0
O 24 31 0
O 26 31 0
O 28 31 0
O 30 31 0
O 32 31 0
O 34 31 0
O 36 31 0
O 38 31 0
O 40 31 0
O 42 31 0
O 44 31 0
O 46 31 0
O 48 31 0
Mn 0 32 0
O 1 32 0
Mn 2 32 0
O 3 32 0
Mn 4 32 0
O 5 32 0
Mn 6 32 0
O 7 32 0
Mn 8 32 0
O 9 32 0
Mn 10 32 0
O 11 32 0
Mn 12 32 0
O 13 32 0
Mn 14 32 0
O 15 32 0
Mn 16 32 0
O 17 32 0
Mn 18 32 0
O 19 32 0
Mn 20 32 0
O 21 32 0
Mn 22 32 0
O 23 32 0
Mn 24 32 0
O 25 32 0
Mn 26 32 0
O 27 32 0
Mn 28 32 0
O 29 32 0
Mn 30 32 0
O 31 32 0
Mn 32 32 0
O 33 32 0
Mn 34 32 0
O 35 32 0
Mn 36 32 0
O 37 32 0
Mn 38 32 0
O 39 32 0
Mn 40 32 0
O 41 32 0
Mn 42 32 0
O 43 32 0
Mn 44 32 0
O 45 32 0
Mn 46 32 0
O 47 32 0
Mn 48 32 0
O 49 32 0
O 0 33 0
O 2 33 0
O 4 33 0
O 6 33 0
O 8 33 0
O 10 33 0
O 12 33 0
O 14 33 0
O 16 33 0
O 18 33 0
O 20 33 0
O 22 33 0
O 24 33 0
O 26 33 0
O 28 33 0
O 30 33 0
O 32 33 0
O 34 33 0
O 36 33 0
O 38 33 0
O 40 33 0
O 42 33 0
O 44 33 0
O 46 33 0
O 48 33 0
Mn 0 34 0
O 1 34 0
Mn 2 34 0
O 3 34 0
Mn 4 34 0
O 5 34 0
Mn 6 34 0
O 7 34 0
Mn 8 34 0
O 9 34 0
Mn 10 34 0
O 11 34 0
Mn 12 34 0
O 13 34 0
Mn 14 34 0
O 15 34 0
Mn 16 34 0
O 17 34 0
Mn 18 34 0
O 19 34 0
Mn 20 34 0
O 21 34 0
Mn 22 34 0
O 23 34 0
Mn 24 34 0
O 25 34 0
Mn 26 34 0
O 27 34 0
Mn 28 34 0
O 29 34 0
Mn 30 34 0
O 31 34 0
Mn 32 34 0
O 33 34 0
Mn 34 34 0
O 35 34 0
Mn 36 34 0
O 37 34 0
Mn 38 34 0
O 39 34 0
Mn 40 34 0
O 41 34 0
Mn 42 34 0
O 43 34 0
Mn 44 34 0
O 45 34 0
Mn 46 34 0
O 47 34 0
Mn 48 34 0
O 49 34 0
O 0 35 0
O 2 35 0
O 4 35 0
O 6 35 0
O 8 35 0
O 10 35 0
O 12 35 0
O 14 35 0
O 16 35 0
O 18 35 0
O 20 35 0
O 22 35 0
O 24 35 0
O 26 35 0
O 28 35 0
O 30 35 0
O 32 35 0
O 34 35 0
O 36 35 0
O 38 35 0
O 40 35 0
O 42 35 0
O 44 35 0
O 46 35 0
O 48 35 0
Mn 0 36 0
O 1 36 0
Mn 2 36 0
O 3 36 0
Mn 4 36 0
O 5 36 0
Mn 6 36 0
O 7 36 0
Mn 8 36 0
O 9 36 0
Mn 10 36 0
O 11 36 0
Mn 12 36 0
O 13 36 0
Mn 14 36 0
O 15 36 0
Mn 16 36 0
O 17 36 0
Mn 18 36 0
O 19 36 0
Mn 20 36 0
O 21 36 0
Mn 22 36 0
O 23 36 0
Mn 24 36 0
O 25 36 0
Mn 26 36 0
O 27 36 0
Mn 28 36 0
O 29 36 0
Mn 30 36 0
O 31 36 0
Mn 32 36 0
O 33 36 0
Mn 34 36 0
O 35 36 0
Mn 36 36 0
O 37 36 0
Mn 38 36 0
O 39 36 0
Mn 40 36 0
O 41 36 0
Mn 42 36 0
O 43 36 0
Mn 44 36 0
O 45 36 0
Mn 46 36 0
O 47 36 0
Mn 48 36 0
O 49 36 0
O 0 37 0
O 2 37 0
O 4 37 0
O 6 37 0
O 8 37 0
O 10 37 0
O 12 37 0
O 14 37 0
O 16 37 0
O 18 37 0
O 20 37 0
O 22 37 0
O 24 37 0
O 26 37 0
O 28 37 0
O 30 37 0
O 32 37 0
O 34 37 0
O 36 37 0
O 38 37 0
O 40 37 0
O 42 37 0
O 44 37 0
O 46 37 0
O 48 37 0
Mn 0 38 0
O 1 38 0
Mn 2 38 0
O 3 38 0
Mn 4 38 0
O 5 38 0
Mn 6 38 0
O 7 38 0
Mn 8 38 0
O 9 38 0
Mn 10 38 0
O 11 38 0
Mn 12 38 0
O 13 38 0
Mn 14 38 0
O 15 38 0
Mn 16 38 0
O 17 38 0
Mn 18 38 0
O 19 38 0
Mn 20 38 0
O 21 38 0
Mn 22 38 0
O 23 38 0
Mn 24 38 0
O 25 38 0
Mn 26 38 0
O 27 38 0
Mn 28 38 0
O 29 38 0
Mn 30 38 0
O 31 38 0
Mn 32 38 0
O 33 38 0
Mn 34 38 0
O 35 38 0
Mn 36 38 0
O 37 38 0
Mn 38 38 0
O 39 38 0
Mn 40 38 0
O 41 38 0
Mn 42 38 0
O 43 38 0
Mn 44 38 0
O 45 38 0
Mn 46 38 0
O 47 38 0
Mn 48 38 0
O 49 38 0
O 0 39 0
O 2 39 0
O 4 39 0
O 6 39 0
O 8 39 0
O 10 39 0
O 12 39 0
O 14 39 0
O 16 39 0
O 18 39 0
O 20 39 0
O 22 39 0
O 24 39 0
O 26 39 0
O 28 39 0
O 30 39 0
O 32 39 0
O 34 39 0
O 36 39 0
O 38 39 0
O 40 39 0
O 42 39 0
O 44 39 0
O 46 39 0
O 48 39 0
Mn 0 40 0
O 1 40 0
Mn 2 40 0
O 3 40 0
Mn 4 40 0
O 5 40 0
Mn 6 40 0
O 7 40 0
Mn 8 40 0
O 9 40 0
Mn 10 40 0
O 11 40 0
Mn 12 40 0
O 13 40 0
Mn 14 40 0
O 15 40 0
Mn 16 40 0
O 17 40 0
Mn 18 40 0
O 19 40 0
Mn 20 40 0
O 21 40 0
Mn 22 40 0
O 23 40 0
Mn 24 40 0
O 25 40 0
Mn 26 40 0
O 27 40 0
Mn 28 40 0
O 29 40 0
Mn 30 40 0
O 31 40 0
Mn 32 40 0
O 33 40 0
Mn 34 40 0
O 35 40 0
Mn 36 40 0
O 37 40 0
Mn 38 40 0
O 39 40 0
Mn 40 40 0
O 41 40 0
Mn 42 40 0
O 43 40 0
Mn 44 40 0
O 45 40 0
Mn 46 40 0
O 47 40 0
Mn 48 40 0
O 49 40 0
O 0 41 0
O 2 41 0
O 4 41 0
O 6 41 0
O 8 41 0
O 10 41 0
O 12 41 0
O 14 41 0
O 16 41 0
O 18 41 0
O 20 41 0
O 22 41 0
O 24 41 0
O 26 41 0
O 28 41 0
O 30 41 0
O 32 41 0
O 34 41 0
O 36 41 0
O 38 41 0
O 40 41 0
O 42 41 0
O 44 41 0
O 46 41 0
O 48 41 0
Mn 0 42 0
O 1 42 0
Mn 2 42 0
O 3 42 0
Mn 4 42 0
O 5 42 0
Mn 6 42 0
O 7 42 0
Mn 8 42 0
O 9 42 0
Mn 10 42 0
O 11 42 0
Mn 12 42 0
O 13 42 0
Mn 14 42 0
O 15 42 0
Mn 16 42 0
O 17 42 0
Mn 18 42 0
O 19 42 0
Mn 20 42 0
O 21 42 0
Mn 22 42 0
O 23 42 0
Mn 24 42 0
O 25 42 0
Mn 26 42 0
O 27 42 0
Mn 28 42 0
O 29 42 0
Mn 30 42 0
O 31 42 0
Mn 32 42 0
O 33 42 0
Mn 34 42 0
O 35 42 0
Mn 36 42 0
O 37 42 0
Mn 38 42 0
O 39 42 0
Mn 40 42 0
O 41 42 0
Mn 42 42 0
O 43 42 0
Mn 44 42 0
O 45 42 0
Mn 46 42 0
O 47 42 0
Mn 48 42 0
O 49 42 0
O 0 43 0
O 2 43 0
O 4 43 0
O 6 43 0
O 8 43 0
O 10 43 0
O 12 43 0
O 14 43 0
O 16 43 0
O 18 43 0
O 20 43 0
O 22 43 0
O 24 43 0
O 26 43 0
O 28 43 0
O 30 43 0
O 32 43 0
O 34 43 0
O 36 43 0
O 38 43 0
O 40 43 0
O 42 43 0
O 44 43 0
O 46 43 0
O 48 43 0
Mn 0 44 0
O 1 44 0
Mn 2 44 0
O 3 44 0
Mn 4 44 0
O 5 44 0
Mn 6 44 0
O 7 44 0
Mn 8 44 0
O 9 44 0
Mn 10 44 0
O 11 44 0
Mn 12 44 0
O 13 44 0
Mn 14 44 0
O 15 44 0
Mn 16 44 0
O 17 44 0
Mn 18 44 0
O 19 44 0
Mn 20 44 0
O 21 44 0
Mn 22 44 0
O 23 44 0
Mn 24 44 0
O 25 44 0
Mn 26 44 0
O 27 44 0
Mn 28 44 0
O 29 44 0
Mn 30 44 0
O 31 44 0
Mn 32 44 0
O 33 44 0
Mn 34 44 0
O 35 44 0
Mn 36 44 0
O 37 44 0
Mn 38 44 0
O 39 44 0
Mn 40 44 0
O 41 44 0
Mn 42 44 0
O 43 44 0
Mn 44 44 0
O 45 44 0
Mn 46 44 0
O 47 44 0
Mn 48 44 0
O 49 44 0
O 0 45 0
O 2 45 0
O 4 45 0
O 6 45 0
O 8 45 0
O 10 45 0
O 12 45 0
O 14 45 0
O 16 45 0
O 18 45 0
O 20 45 0
O 22 45 0
O 24 45 0
O 26 45 0
O 28 45 0
O 30 45 0
O 32 45 0
O 34 45 0
O 36 45 0
O 38 45 0
O 40 45 0
O 42 45 0
O 44 45 0
O 46 45 0
O 48 45 0
Mn 0 46 0
O 1 46 0
Mn 2 46 0
O 3 46 0
Mn 4 46 0
O 5 46 0
Mn 6 46 0
O 7 46 0
Mn 8 46 0
O 9 46 0
Mn 10 46 0
O 11 46 0
Mn 12 46 0
O 13 46 0
Mn 14 46 0
O 15 46 0
Mn 16 46 0
O 17 46 0
Mn 18 46 0
O 19 46 0
Mn 20 46 0
O 21 46 0
Mn 22 46 0
O 23 46 0
Mn 24 46 0
O 25 46 0
Mn 26 46 0
O 27 46 0
Mn 28 46 0
O 29 46 0
Mn 30 46 0
O 31 46 0
Mn 32 46 0
O 33 46 0
Mn 34 46 0
O 35 46 0
Mn 36 46 0
O 37 46 0
Mn 38 46 0
O 39 46 0
Mn 40 46 0
O 41 46 0
Mn 42 46 0
O 43 46 0
Mn 44 46 0
O 45 46 0
Mn 46 46 0
O 47 46 0
Mn 48 46 0
O 49 46 0
O 0 47 0
O 2 47 0
O 4 47 0
O 6 47 0
O 8 47 0
O 10 47 0
O 12 47 0
O 14 47 0
O 16 47 0
O 18 47 0
O 20 47 0
O 22 47 0
O 24 47 0
O 26 47 0
O 28 47 0
O 30 47 0
O 32 47 0
O 34 47 0
O 36 47 0
O 38 47 0
O 40 47 0
O 42 47 0
O 44 47 0
O 46 47 0
O 48 47 0
Mn 0 48 0
O 1 48 0
Mn 2 48 0
O 3 48 0
Mn 4 48 0
O 5 48 0
Mn 6 48 0
O 7 48 0
Mn 8 48 0
O 9 48 0
Mn 10 48 0
O 11 48 0
Mn 12 48 0
O 13 48 0
Mn 14 48 0
O 15 48 0
Mn 16 48 0
O 17 48 0
Mn 18 48 0
O 19 48 0
Mn 20 48 0
O 21 48 0
Mn 22 48 0
O 23 48 0
Mn 24 48 0
O 25 48 0
Mn 26 48 0
O 27 48 0
Mn 28 48 0
O 29 48 0
Mn 30 48 0
O 31 48 0
Mn 32 48 0
O 33 48 0
Mn 34 48 0
O 35 48 0
Mn 36 48 0
O 37 48 0
Mn 38 48 0
O 39 48 0
Mn 40 48 0
O 41 48 0
Mn 42 48 0
O 43 48 0
Mn 44 48 0
O 45 48 0
Mn 46 48 0
O 47 48 0
Mn 48 48 0
O 49 48 0
O 0 49 0
O 2 49 0
O 4 49 0
O 6 49 0
O 8 49 0
O 10 49 0
O 12 49 0
O 14 49 0
O 16 49 0
O 18 49 0
O 20 49 0
O 22 49 0
O 24 49 0
O 26 49 0
O 28 49 0
O 30 49 0
O 32 49 0
O 34 49 0
O 36 49 0
O 38 49 0
O 40 49 0
O 42 49 0
O 44 49 0
O 46 49 0
O 48 49 0
O 2 0 1
O 6 0 1
O 10 0 1
O 14 0 1
O 18 0 1
O 22 0 1
O 26 0 1
O 30 0 1
O 34 0 1
O 38 0 1
O 42 0 1
O 46 0 1
N 1 1 1
Ca 7 1 1
Ca 9 1 1
N 13 1 1
Ca 15 1 1
Ca 19 1 1
Ca 21 1 1
N 27 1 1
N 29 1 1
Ca 39 1 1
N 43 1 1
N 45 1 1
Ca 47 1 1
N 49 1 1
O 0 2 1
O 4 2 1
O 8 2 1
O 12 2 1
O 16 2 1
O 20 2 1
O 24 2 1
O 28 2 1
O 32 2 1
O 36 2 1
O 40 2 1
O 44 2 1
O 48 2 1
Ca 5 3 1
Ca 7 3 1
N 9 3 1
N 11 3 1
Ca 17 3 1
Ca 21 3 1
N 25 3 1
Ca 29 3 1
N 31 3 1
N 37 3 1
N 41 3 1
O 2 4 1
O 6 4 1
O 10 4 1
O 14 4 1
O 18 4 1
O 22 4 1
O 26 4 1
O 30 4 1
O 34 4 1
O 38 4 1
O 42 4 1
O 46 4 1
Ca 3 5 1
N 5 5 1
Ca 11 5 1
Ca 13 5 1
Ca 23 5 1
N 31 5 1
N 33 5 1
Ca 39 5 1
N 41 5 1
Ca 47 5 1
Ca 49 5 1
O 0 6 1
O 4 6 1
O 8 6 1
O 12 6 1
O 16 6 1
O 20 6 1
O 24 6 1
O 28 6 1
O 32 6 1
O 36 6 1
O 40 6 1
O 44 6 1
O 48 6 1
Ca 3 7 1
Ca 5 7 1
N 7 7 1
Ca 9 7 1
N 13 7 1
Ca 21 7 1
N 23 7 1
Ca 27 7 1
Ca 37 7 1
Ca 39 7 1
N 41 7 1
N 43 7 1
N 45 7 1
N 47 7 1
O 2 8 1
O 6 8 1
O 10 8 1
O 14 8 1
O 18 8 1
O 22 8 1
O 26 8 1
O 30 8 1
O 34 8 1
O 38 8 1
O 42 8 1
O 46 8 1
Ca 13 9 1
Ca 17 9 1
N 19 9 1
Ca 21 9 1
N 29 9 1
N 31 9 1
N 33 9 1
Ca 35 9 1
N 37 9 1
Ca 41 9 1
N 45 9 1
O 0 10 1
O 4 10 1
O 8 10 1
O 12 10 1
O 16 10 1
O 20 10 1
O 24 10 1
O 28 10 1
O 32 10 1
O 36 10 1
O 40 10 1
O 44 10 1
O 48 10 1
Ca 1 11 1
Ca 3 11 1
N 7 11 1
Ca 15 11 1
Ca 17 11 1
Ca 21 11 1
Ca 25 11 1
Ca 27 11 1
N 29 11 1
Ca 31 11 1
N 35 11 1
N 45 11 1
N 49 11 1
O 2 12 1
O 6 12 1
O 10 12 1
O 14 12 1
O 18 12 1
O 22 12 1
O 26 12 1
O 30 12 1
O 34 12 1
O 38 12 1
O 42 12 1
O 46 12 1
N 3 13 1
N 5 13 1
Ca 9 13 1
Ca 11 13 1
Ca 15 13 1
N 25 13 1
N 31 13 1
Ca 33 13 1
N 35 13 1
N 43 13 1
N 45 13 1
Ca 49 13 1
O 0 14 1
O 4 14 1
O 8 14 1
O 12 14 1
O 16 14 1
O 20 14 1
O 24 14 1
O 28 14 1
O 32 14 1
O 36 14 1
O 40 14 1
O 44 14 1
O 48 14 1
Ca 1 15 1
N 3 15 1
Ca 5 15 1
N 7 15 1
N 11 15 1
Ca 13 15 1
N 21 15 1
N 23 15 1
N 31 15 1
Ca 35 15 1
Ca 37 15 1
N 39 15 1
Ca 41 15 1
Ca 49 15 1
O 2 16 1
O 6 16 1
O 10 16 1
O 14 16 1
O 18 16 1
O 22 16 1
O 26 16 1
O 30 16 1
O 34 16 1
O 38 16 1
O 42 16 1
O 46 16 1
Ca 7 17 1
Ca 11 17 1
Ca 25 17 1
N 27 17 1
N 33 17 1
Ca 35 17 1
N 37 17 1
Ca 39 17 1
Ca 41 17 1
Ca 43 17 1
Ca 45 17 1
N 47 17 1
O 0 18 1
O 4 18 1
O 8 18 1
O 12 18 1
O 16 18 1
O 20 18 1
O 24 18 1
O 28 18 1
O 32 18 1
O 36 18 1
O 40 18 1
O 44 18 1
O 48 18 1
N 1 19 1
Ca 9 19 1
Ca 15 19 1
Ca 17 19 1
N 19 19 1
Ca 23 19 1
N 25 19 1
N 39 19 1
Ca 43 19 1
N 45 19 1
Ca 47 19 1
O 2 20 1
O 6 20 1
O 10 20 1
O 14 20 1
O 18 20 1
O 22 20 1
O 26 20 1
O 30 20 1
O 34 20 1
O 38 20 1
O 42 20 1
O 46 20 1
N 15 21 1
Ca 19 21 1
Ca 21 21 1
N 23 21 1
Ca 27 21 1
N 29 21 1
Ca 31 21 1
N 33 21 1
Ca 35 21 1
Ca 45 21 1
Ca 49 21 1
O 0 22 1
O 4 22 1
O 8 22 1
O 12 22 1
O 16 22 1
O 20 22 1
O 24 22 1
O 28 22 1
O 32 22 1
O 36 22 1
O 40 22 1
O 44 22 1
O 48 22 1
N 3 23 1
Ca 15 23 1
N 21 23 1
N 27 23 1
Ca 29 23 1
Ca 31 23 1
Ca 37 23 1
Ca 41 23 1
N 43 23 1
N 49 23 1
O 2 24 1
O 6 24 1
O 10 24 1
O 14 24 1
O 18 24 1
O 22 24 1
O 26 24 1
O 30 24 1
O 34 24 1
O 38 24 1
O 42 24 1
O 46 24 1
Ca 7 25 1
Ca 11 25 1
Ca 15 25 1
Ca 19 25 1
Ca 21 25 1
N 23 25 1
N 25 25 1
Ca 27 25 1
N 33 25 1
Ca 35 25 1
Ca 43 25 1
N 45 25 1
Ca 47 25 1
O 0 26 1
O 4 26 1
O 8 26 1
O 12 26 1
O 16 26 1
O 20 26 1
O 24 26 1
O 28 26 1
O 32 26 1
O 36 26 1
O 40 26 1
O 44 26 1
O 48 26 1
N 9 27 1
Ca 11 27 1
N 15 27 1
N 23 27 1
Ca 27 27 1
Ca 33 27 1
Ca 37 27 1
Ca 39 27 1
Ca 43 27 1
N 47 27 1
Ca 49 27 1
O 2 28 1
O 6 28 1
O 10 28 1
O 14 28 1
O 18 28 1
O 22 28 1
O 26 28 1
O 30 28 1
O 34 28 1
O 38 28 1
O 42 28 1
O 46 28 1
N 5 29 1
Ca 7 29 1
Ca 15 29 1
N 23 29 1
N 27 29 1
Ca 31 29 1
Ca 35 29 1
N 39 29 1
Ca 43 29 1
N 49 29 1
O 0 30 1
O 4 30 1
O 8 30 1
O 12 30 1
O 16 30 1
O 20 30 1
O 24 30 1
O 28 30 1
O 32 30 1
O 36 30 1
O 40 30 1
O 44 30 1
O 48 30 1
Ca 1 31 1
Ca 3 31 1
N 5 31 1
Ca 7 31 1
N 9 31 1
N 13 31 1
N 15 31 1
Ca 19 31 1
Ca 21 31 1
N 25 31 1
N 31 31 1
N 35 31 1
N 37 31 1
Ca 47 31 1
O 2 32 1
O 6 32 1
O 10 32 1
O 14 32 1
O 18 32 1
O 22 32 1
O 26 32 1
O 30 32 1
O 34 32 1
O 38 32 1
O 42 32 1
O 46 32 1
Ca 5 33 1
Ca 9 33 1
Ca 15 33 1
N 17 33 1
N 19 33 1
Ca 27 33 1
N 35 33 1
Ca 37 33 1
N 43 33 1
N 45 33 1
N 47 33 1
Ca 49 33 1
O 0 34 1
O 4 34 1
O 8 34 1
O 12 34 1
O 16 34 1
O 20 34 1
O 24 34 1
O 28 34 1
O 32 34 1
O 36 34 1
O 40 34 1
O 44 34 1
O 48 34 1
Ca 3 35 1
N 11 35 1
Ca 13 35 1
N 17 35 1
N 19 35 1
N 21 35 1
Ca 25 35 1
Ca 29 35 1
Ca 33 35 1
Ca 37 35 1
Ca 39 35 1
N 41 35 1
N 45 35 1
N 49 35 1
O 2 36 1
O 6 36 1
O 10 36 1
O 14 36 1
O 18 36 1
O 22 36 1
O 26 36 1
O 30 36 1
O 34 36 1
O 38 36 1
O 42 36 1
O 46 36 1
N 1 37 1
Ca 5 37 1
N 9 37 1
Ca 13 37 1
Ca 15 37 1
N 25 37 1
N 33 37 1
N 41 37 1
N 43 37 1
Ca 49 37 1
O 0 38 1
O 4 38 1
O 8 38 1
O 12 38 1
O 16 38 1
O 20 38 1
O 24 38 1
O 28 38 1
O 32 38 1
O 36 38 1
O 40 38 1
O 44 38 1
O 48 38 1
N 5 39 1
N 7 39 1
N 9 39 1
N 11 39 1
N 13 39 1
N 15 39 1
N 23 39 1
Ca 25 39 1
Ca 29 39 1
N 31 39 1
N 35 39 1
N 37 39 1
N 39 39 1
N 41 39 1
N 45 39 1
O 2 40 1
O 6 40 1
O 10 40 1
O 14 40 1
O 18 40 1
O 22 40 1
O 26 40 1
O 30 40 1
O 34 40 1
O 38 40 1
O 42 40 1
O 46 40 1
Ca 3 41 1
Ca 5 41 1
N 11 41 1
Ca 13 41 1
Ca 19 41 1
Ca 23 41 1
N 25 41 1
N 27 41 1
N 31 41 1
N 37 41 1
Ca 45 41 1
N 47 41 1
N 49 41 1
O 0 42 1
O 4 42 1
O 8 42 1
O 12 42 1
O 16 42 1
O 20 42 1
O 24 42 1
O 28 42 1
O 32 42 1
O 36 42 1
O 40 42 1
O 44 42 1
O 48 42 1
Ca 3 43 1
Ca 5 43 1
N 7 43 1
Ca 9 43 1
Ca 11 43 1
Ca 17 43 1
N 19 43 1
N 27 43 1
N 33 43 1
N 37 43 1
Ca 39 43 1
Ca 41 43 1
Ca 43 43 1
Ca 45 43 1
N 47 43 1
O 2 44 1
O 6 44 1
O 10 44 1
O 14 44 1
O 18 44 1
O 22 44 1
O 26 44 1
O 30 44 1
O 34 44 1
O 38 44 1
O 42 44 1
O 46 44 1
Ca 3 45 1
N 5 45 1
N 15 45 1
Ca 19 45 1
Ca 29 45 1
N 31 45 1
N 35 45 1
N 37 45 1
Ca 39 45 1
Ca 41 45 1
N 45 45 1
O 0 46 1
O 4 46 1
O 8 46 1
O 12 46 1
O 16 46 1
O 20 46 1
O 24 46 1
O 28 46 1
O 32 46 1
O 36 46 1
O 40 46 1
O 44 46 1
O 48 46 1
N 1 47 1
Ca 3 47 1
Ca 5 47 1
Ca 7 47 1
N 9 47 1
N 11 47 1
N 17 47 1
N 21 47 1
Ca 23 47 1
Ca 27 47 1
N 33 47 1
Ca 37 47 1
N 41 47 1
O 2 48 1
O 6 48 1
O 10 48 1
O 14 48 1
O 18 48 1
O 22 48 1
O 26 48 1
O 30 48 1
O 34 48 1
O 38 48 1
O 42 48 1
O 46 48 1
N 1 49 1
N 3 49 1
Ca 5 49 1
N 9 49 1
Ca 15 49 1
N 17 49 1
N 19 49 1
N 21 49 1
N 25 49 1
N 27 49 1
Ca 35 49 1
N 41 49 1
Ca 43 49 1
Ca 49 49 1
